Distribution/8500Node/DSSfiles/IEEE8500_1_VLN_Node.Txt

LINE-GROUND and LINE-LINE VOLTAGES BY BUS & NODE

Bus                  Node    VLN (kV)   Angle      pu     Base kV    Node-Node   VLL (kV)  Angle      pu

8500_1 ............. 1       83.658 /_    0.0      1.05   138.000        1-2      144.9 /_   30.0      1.05
   -                 2       83.658 /_ -120.0      1.05   138.000        2-3      144.9 /_  -90.0      1.05
   -                 3       83.658 /_  120.0      1.05   138.000        3-1      144.9 /_  150.0      1.05
_HVMV_SUB_LSB ...... 1       7.5383 /_  -33.3     1.047    12.470        1-2     13.083 /_   -3.1    1.0491
   -                 2        7.581 /_ -153.1     1.053    12.470        2-3     13.122 /_ -123.1    1.0522
   -                 3       7.5792 /_   87.0    1.0527    12.470        3-1     13.111 /_  116.8    1.0514
HVMV_SUB_48332 ..... 1       7.5383 /_  -33.3     1.047    12.470        1-2     13.083 /_   -3.1    1.0491
   -                 2        7.581 /_ -153.1     1.053    12.470        2-3     13.122 /_ -123.1    1.0522
   -                 3       7.5792 /_   87.0    1.0527    12.470        3-1     13.111 /_  116.8    1.0514
M1009763 ........... 1       7.2041 /_  -43.9    1.0006    12.470        1-2     12.687 /_  -14.6    1.0174
   -                 2       7.3109 /_ -165.8    1.0155    12.470        2-3     12.283 /_ -132.3   0.98498
   -                 3       7.3796 /_   80.7     1.025    12.470        3-1     12.917 /_  108.0    1.0358
L2673322 ........... 2       7.3108 /_ -165.8    1.0155    12.470
M1069148 ........... 3       7.3865 /_   81.6     1.026    12.470
L2673309 ........... 3       7.3862 /_   81.6    1.0259    12.470
M1069588 ........... 2       7.3454 /_ -164.0    1.0203    12.470
L2804270 ........... 2       7.3454 /_ -164.0    1.0203    12.470
M3036164 ........... 2       7.1799 /_ -165.6   0.99727    12.470
L2935553 ........... 2       7.1784 /_ -165.6   0.99706    12.470
M1209749 ........... 2       7.4286 /_ -155.3    1.0318    12.470
L2748840 ........... 2       7.4284 /_ -155.3    1.0318    12.470
M1108264 ........... 2       7.4492 /_ -159.3    1.0347    12.470
M1108263 ........... 2       7.4488 /_ -159.3    1.0346    12.470
L3085398 ........... 1       7.2508 /_  -43.9    1.0071    12.470        1-2     12.762 /_  -14.6    1.0234
   -                 2       7.3546 /_ -165.7    1.0215    12.470        2-3     12.335 /_ -132.4    0.9892
   -                 3       7.3909 /_   80.7    1.0266    12.470        3-1     12.967 /_  108.1    1.0398
M1026891 ........... 1       7.2475 /_  -43.9    1.0067    12.470        1-2     12.754 /_  -14.6    1.0228
   -                 2       7.3483 /_ -165.7    1.0207    12.470        2-3     12.329 /_ -132.4   0.98866
   -                 3       7.3897 /_   80.7    1.0264    12.470        3-1     12.962 /_  108.1    1.0395
L3216367 ........... 1       7.3211 /_  -43.4    1.0169    12.470        1-2     12.797 /_  -14.4    1.0262
   -                 2       7.3173 /_ -165.3    1.0164    12.470        2-3     12.302 /_ -132.4    0.9865
   -                 3       7.3279 /_   80.4    1.0178    12.470        3-1     12.924 /_  108.5    1.0364
M1069468 ........... 1       7.3205 /_  -43.4    1.0168    12.470        1-2     12.795 /_  -14.4     1.026
   -                 2       7.3151 /_ -165.3     1.016    12.470        2-3     12.299 /_ -132.4    0.9863
   -                 3       7.3272 /_   80.4    1.0177    12.470        3-1     12.922 /_  108.5    1.0363
M1142800 ........... 2       7.2612 /_ -157.8    1.0086    12.470
M1142799 ........... 2        7.261 /_ -157.8    1.0085    12.470
M1047592 ........... 1       7.3697 /_  -43.6    1.0236    12.470        1-2     12.926 /_  -14.2    1.0366
   -                 2       7.4339 /_ -165.2    1.0326    12.470        2-3      12.46 /_ -132.2   0.99916
   -                 3        7.424 /_   80.8    1.0312    12.470        3-1     13.084 /_  108.5    1.0492
P827512 ............ 3        7.424 /_   80.8    1.0312    12.470
M1047339 ........... 1       7.2454 /_  -39.7    1.0064    12.470        1-2     12.597 /_  -10.1    1.0101
   -                 2       7.2486 /_ -160.4    1.0068    12.470        2-3     12.584 /_ -129.4    1.0091
   -                 3       7.3898 /_   81.0    1.0264    12.470        3-1     12.722 /_  110.3    1.0202
P895104 ............ 1       7.2454 /_  -39.7    1.0064    12.470
M1026915 ........... 1       7.2492 /_  -43.9    1.0069    12.470        1-2     12.762 /_  -14.6    1.0234
   -                 2       7.3568 /_ -165.7    1.0218    12.470        2-3     12.337 /_ -132.4    0.9893
   -                 3       7.3899 /_   80.7    1.0264    12.470        3-1     12.965 /_  108.1    1.0397
M1026920 ........... 1       7.2471 /_  -43.9    1.0066    12.470        1-2     12.759 /_  -14.6    1.0232
   -                 2       7.3558 /_ -165.7    1.0217    12.470        2-3     12.335 /_ -132.4   0.98916
   -                 3       7.3889 /_   80.7    1.0263    12.470        3-1     12.962 /_  108.1    1.0395
N1138596 ........... 1       7.3024 /_  -43.4    1.0143    12.470
L3254207 ........... 1       7.3019 /_  -43.4    1.0142    12.470
M1069464 ........... 1       7.3194 /_  -43.4    1.0167    12.470        1-2     12.791 /_  -14.4    1.0258
   -                 2       7.3111 /_ -165.3    1.0155    12.470        2-3     12.295 /_ -132.4   0.98594
   -                 3       7.3258 /_   80.4    1.0175    12.470        3-1     12.919 /_  108.5     1.036
P873787 ............ 2       7.3111 /_ -165.3    1.0155    12.470
N1144665 ........... 1        7.395 /_  -43.4    1.0272    12.470        1-2     12.956 /_  -14.1     1.039
   -                 2        7.447 /_ -165.0    1.0344    12.470        2-3     12.476 /_ -132.1    1.0005
   -                 3       7.4162 /_   80.9    1.0301    12.470        3-1     13.092 /_  108.7    1.0499
M1047515 ........... 1       7.3897 /_  -43.4    1.0264    12.470        1-2     12.948 /_  -14.1    1.0383
   -                 2       7.4431 /_ -165.0    1.0338    12.470        2-3     12.469 /_ -132.1   0.99992
   -                 3       7.4115 /_   80.9    1.0294    12.470        3-1     13.084 /_  108.7    1.0492
N1137002 ........... 1       7.3608 /_  -43.3    1.0224    12.470
M1047707 ........... 1       7.3605 /_  -43.3    1.0224    12.470
L2729406 ........... 3       7.2782 /_   82.4    1.0109    12.470
L2897768 ........... 3       7.2777 /_   82.4    1.0109    12.470
L3649301 ........... 1       7.3382 /_  -43.7    1.0193    12.470
L3649302 ........... 1       7.3378 /_  -43.7    1.0192    12.470
L2970842 ........... 2       7.4714 /_ -159.2    1.0378    12.470
M1089113 ........... 2         7.47 /_ -159.2    1.0376    12.470
M1047312 ........... 1       7.2114 /_  -39.7    1.0016    12.470        1-2      12.54 /_  -10.1    1.0056
   -                 2       7.2127 /_ -160.5    1.0018    12.470        2-3      12.54 /_ -129.3    1.0057
   -                 3       7.3805 /_   81.0    1.0251    12.470        3-1     12.685 /_  110.3    1.0172
P893163 ............ 1       7.2113 /_  -39.7    1.0016    12.470
L2822871 ........... 1       7.2831 /_  -43.9    1.0116    12.470        1-2     12.814 /_  -14.5    1.0276
   -                 2       7.3914 /_ -165.5    1.0266    12.470        2-3     12.383 /_ -132.4   0.99301
   -                 3       7.4004 /_   80.8    1.0279    12.470        3-1     13.004 /_  108.2    1.0428
M1026872 ........... 1       7.2804 /_  -43.9    1.0112    12.470        1-2     12.809 /_  -14.5    1.0272
   -                 2       7.3886 /_ -165.5    1.0263    12.470        2-3     12.379 /_ -132.4   0.99271
   -                 3       7.3995 /_   80.8    1.0278    12.470        3-1     13.001 /_  108.2    1.0426
M1026312 ........... 2       7.0604 /_ -160.8   0.98067    12.470
L2973163 ........... 2       7.0577 /_ -160.8    0.9803    12.470
L3728038 ........... 1       7.3273 /_  -43.5    1.0177    12.470
L3728039 ........... 1       7.3268 /_  -43.5    1.0177    12.470
M1069567 ........... 2       7.3582 /_ -164.0     1.022    12.470
M1069582 ........... 2       7.3492 /_ -164.0    1.0208    12.470
N1140830 ........... 1       7.1913 /_  -43.7   0.99886    12.470
L3216351 ........... 1       7.1912 /_  -43.7   0.99884    12.470
L2952007 ........... 3       7.3987 /_   85.8    1.0277    12.470
L2861158 ........... 3       7.3983 /_   85.8    1.0276    12.470
N1140827 ........... 1       7.1966 /_  -43.7   0.99959    12.470        1-2     12.722 /_  -13.9    1.0202
   -                 2       7.4022 /_ -164.9    1.0281    12.470        2-3     12.323 /_ -132.3   0.98825
   -                 3       7.2821 /_   81.0    1.0115    12.470        3-1     12.822 /_  108.5    1.0282
M1026726 ........... 1       7.1966 /_  -43.7   0.99958    12.470        1-2     12.722 /_  -13.9    1.0202
   -                 2       7.4021 /_ -164.9    1.0281    12.470        2-3     12.323 /_ -132.3   0.98823
   -                 3       7.2821 /_   81.0    1.0115    12.470        3-1     12.821 /_  108.5    1.0282
L2730106 ........... 1       6.8045 /_  -39.9   0.94513    12.470        1-2     12.114 /_   -9.6   0.97146
   -                 2       7.1213 /_ -160.8   0.98913    12.470        2-3      12.41 /_ -128.2   0.99521
   -                 3       7.4703 /_   82.7    1.0376    12.470        3-1     12.526 /_  109.9    1.0045
N1142099 ........... 1       6.8019 /_  -40.0   0.94476    12.470        1-2     12.111 /_   -9.7   0.97121
   -                 2       7.1201 /_ -160.9   0.98896    12.470        2-3     12.408 /_ -128.3   0.99504
   -                 3       7.4702 /_   82.6    1.0376    12.470        3-1     12.524 /_  109.9    1.0043
M1026658 ........... 1       7.1896 /_  -43.7   0.99861    12.470        1-2     12.714 /_  -13.8    1.0195
   -                 2       7.4038 /_ -164.9    1.0284    12.470        2-3     12.316 /_ -132.3   0.98761
   -                 3       7.2677 /_   80.9    1.0095    12.470        3-1     12.804 /_  108.4    1.0268
L3172805 ........... 1       7.1894 /_  -43.7   0.99859    12.470
P895112 ............ 1       7.1046 /_  -37.7   0.98682    12.470
L3048962 ........... 1       7.1046 /_  -37.7   0.98681    12.470
L2991914 ........... 1       7.3424 /_  -43.4    1.0198    12.470        1-2      12.88 /_  -14.0    1.0329
   -                 2       7.4163 /_ -165.0    1.0301    12.470        2-3     12.414 /_ -132.2   0.99552
   -                 3       7.3728 /_   80.9    1.0241    12.470        3-1      13.01 /_  108.7    1.0433
M1047503 ........... 1       7.3387 /_  -43.4    1.0193    12.470        1-2     12.876 /_  -14.0    1.0326
   -                 2        7.416 /_ -165.0    1.0301    12.470        2-3     12.412 /_ -132.2   0.99534
   -                 3       7.3705 /_   80.9    1.0237    12.470        3-1     13.006 /_  108.6    1.0429
M1047751 ........... 1       7.3175 /_  -43.1    1.0164    12.470
L2973154 ........... 1       7.3175 /_  -43.1    1.0164    12.470
L3010565 ........... 3       7.3833 /_   81.6    1.0255    12.470
L2897775 ........... 3       7.3831 /_   81.6    1.0255    12.470
M1125955 ........... 3       7.4736 /_   83.2    1.0381    12.470
M1125957 ........... 3       7.4735 /_   83.2    1.0381    12.470
M1069640 ........... 2       7.3222 /_ -164.1     1.017    12.470
L2804269 ........... 2       7.3215 /_ -164.1    1.0169    12.470
M1026702 ........... 1       7.2205 /_  -43.6    1.0029    12.470        1-2     12.749 /_  -13.9    1.0224
   -                 2       7.4059 /_ -164.9    1.0287    12.470        2-3     12.342 /_ -132.3   0.98974
   -                 3       7.3009 /_   80.9    1.0141    12.470        3-1     12.857 /_  108.5     1.031
N1139551 ........... 1       7.2092 /_  -43.7    1.0013    12.470        1-2     12.738 /_  -13.9    1.0215
   -                 2       7.4054 /_ -164.9    1.0286    12.470        2-3     12.336 /_ -132.3   0.98924
   -                 3       7.2944 /_   81.0    1.0132    12.470        3-1     12.842 /_  108.5    1.0299
N1136355 ........... 2       7.3982 /_ -163.9    1.0276    12.470
L2783231 ........... 2        7.391 /_ -163.9    1.0266    12.470
L2748143 ........... 1       7.1976 /_  -42.1   0.99972    12.470
L3251854 ........... 1       7.1974 /_  -42.1   0.99971    12.470
M1069610 ........... 2       7.3331 /_ -164.0    1.0185    12.470
M1069600 ........... 2        7.333 /_ -164.0    1.0185    12.470
M1069424 ........... 1       7.3114 /_  -43.4    1.0155    12.470        1-2     12.766 /_  -14.5    1.0237
   -                 2       7.2807 /_ -165.4    1.0113    12.470        2-3     12.261 /_ -132.5   0.98322
   -                 3       7.3154 /_   80.3    1.0161    12.470        3-1     12.894 /_  108.4     1.034
L2935549 ........... 1       7.3103 /_  -43.4    1.0154    12.470        1-2     12.763 /_  -14.5    1.0235
   -                 2       7.2766 /_ -165.5    1.0107    12.470        2-3     12.256 /_ -132.5   0.98285
   -                 3       7.3142 /_   80.3    1.0159    12.470        3-1     12.891 /_  108.4    1.0338
P895089 ............ 3       7.5184 /_   81.7    1.0443    12.470
L3235242 ........... 3       7.5182 /_   81.7    1.0443    12.470
M1026795 ........... 1       7.3032 /_  -43.5    1.0144    12.470        1-2     12.838 /_  -14.0    1.0295
   -                 2       7.4134 /_ -165.0    1.0297    12.470        2-3     12.391 /_ -132.2   0.99363
   -                 3       7.3484 /_   80.9    1.0207    12.470        3-1      12.96 /_  108.6    1.0393
N1140522 ........... 3       7.3483 /_   80.9    1.0207    12.470
L3030199 ........... 1         7.15 /_  -37.6   0.99311    12.470        1-2     12.496 /_   -7.5    1.0021
   -                 2       7.2627 /_ -157.8    1.0088    12.470        2-3      12.68 /_ -126.9    1.0168
   -                 3       7.4585 /_   83.2     1.036    12.470        3-1     12.706 /_  112.1    1.0189
M1125934 ........... 1         7.15 /_  -37.6   0.99311    12.470        1-2     12.495 /_   -7.5     1.002
   -                 2       7.2617 /_ -157.9    1.0086    12.470        2-3     12.679 /_ -126.9    1.0167
   -                 3       7.4578 /_   83.2    1.0359    12.470        3-1     12.705 /_  112.1    1.0189
M1069189 ........... 1       7.4027 /_  -39.1    1.0282    12.470        1-2      12.86 /_   -9.2    1.0313
   -                 2       7.4213 /_ -159.5    1.0308    12.470        2-3     12.772 /_ -129.0    1.0242
   -                 3        7.402 /_   81.6    1.0281    12.470        3-1     12.864 /_  111.2    1.0316
L2860487 ........... 3       7.4019 /_   81.6    1.0281    12.470
221-312488 ......... 1       6.8418 /_  -39.4   0.95031    12.470        1-2     12.143 /_   -9.2   0.97377
   -                 2       7.1191 /_ -160.3   0.98882    12.470        2-3     12.426 /_ -127.9   0.99645
   -                 3       7.4626 /_   82.9    1.0365    12.470        3-1     12.531 /_  110.4    1.0049
M1089183 ........... 1       6.8418 /_  -39.4   0.95031    12.470        1-2     12.143 /_   -9.2   0.97377
   -                 2       7.1191 /_ -160.3   0.98882    12.470        2-3     12.426 /_ -127.9   0.99644
   -                 3       7.4626 /_   82.9    1.0365    12.470        3-1     12.531 /_  110.4    1.0049
M1108464 ........... 2       7.1167 /_ -160.3   0.98849    12.470
L3102286 ........... 2       7.1162 /_ -160.3   0.98842    12.470
F739845 ............ 1       7.1943 /_  -39.7   0.99927    12.470        1-2     12.505 /_  -10.1    1.0028
   -                 2       7.1861 /_ -160.5   0.99814    12.470        2-3      12.51 /_ -129.3    1.0032
   -                 3        7.375 /_   81.0    1.0244    12.470        3-1     12.664 /_  110.3    1.0156
293471 ............. 1       7.1942 /_  -39.7   0.99926    12.470        1-2     12.505 /_  -10.1    1.0028
   -                 2       7.1861 /_ -160.5   0.99813    12.470        2-3      12.51 /_ -129.3    1.0032
   -                 3       7.3749 /_   81.0    1.0244    12.470        3-1     12.664 /_  110.3    1.0156
P827499 ............ 1       7.3091 /_  -43.4    1.0152    12.470
N1139254 ........... 1       7.3091 /_  -43.4    1.0152    12.470
M1026657 ........... 1       7.1861 /_  -43.7   0.99813    12.470
M1026656 ........... 1       7.1858 /_  -43.7   0.99809    12.470
M1108299 ........... 2       7.2316 /_ -158.2    1.0044    12.470
M1108300 ........... 2       7.2315 /_ -158.2    1.0044    12.470
L3198355 ........... 2       7.2312 /_ -158.2    1.0044    12.470
L2805037 ........... 2       7.2312 /_ -158.2    1.0044    12.470
N1137994 ........... 3       7.3329 /_   80.5    1.0185    12.470
M1069484 ........... 3       7.3314 /_   80.5    1.0183    12.470
L2860504 ........... 1       7.1924 /_  -43.7     0.999    12.470
L2860493 ........... 1       7.1917 /_  -43.7    0.9989    12.470
M1026783 ........... 1       7.2922 /_  -43.5    1.0129    12.470        1-2     12.826 /_  -14.0    1.0286
   -                 2       7.4125 /_ -165.0    1.0296    12.470        2-3     12.384 /_ -132.2   0.99313
   -                 3       7.3424 /_   80.9    1.0198    12.470        3-1     12.947 /_  108.6    1.0382
M1026780 ........... 1       7.2905 /_  -43.5    1.0126    12.470        1-2     12.824 /_  -14.0    1.0284
   -                 2       7.4124 /_ -165.0    1.0296    12.470        2-3     12.383 /_ -132.2   0.99305
   -                 3       7.3414 /_   80.9    1.0197    12.470        3-1     12.944 /_  108.6     1.038
P895111 ............ 3       7.4773 /_   83.5    1.0386    12.470
L2895496 ........... 3        7.477 /_   83.5    1.0385    12.470
N1140819 ........... 1        7.201 /_  -43.7    1.0002    12.470        1-2     12.727 /_  -13.9    1.0206
   -                 2       7.4032 /_ -164.9    1.0283    12.470        2-3     12.328 /_ -132.3    0.9886
   -                 3       7.2866 /_   81.0    1.0121    12.470        3-1     12.829 /_  108.5    1.0288
M1026700 ........... 1       7.1998 /_  -43.7         1    12.470        1-2     12.726 /_  -13.9    1.0205
   -                 2       7.4028 /_ -164.9    1.0282    12.470        2-3     12.327 /_ -132.3   0.98849
   -                 3       7.2853 /_   81.0    1.0119    12.470        3-1     12.827 /_  108.5    1.0286
M1089173 ........... 3        7.281 /_   82.4    1.0113    12.470
L2935551 ........... 3         7.28 /_   82.4    1.0112    12.470
M1026344 ........... 1       7.1483 /_  -39.7   0.99288    12.470
M1026364 ........... 1        7.148 /_  -39.7   0.99284    12.470
L2879070 ........... 1       7.3577 /_  -43.6     1.022    12.470        1-2     12.911 /_  -14.3    1.0354
   -                 2       7.4298 /_ -165.3     1.032    12.470        2-3      12.45 /_ -132.2   0.99843
   -                 3       7.4204 /_   80.8    1.0307    12.470        3-1     13.073 /_  108.5    1.0484
L3216345 ........... 1       7.3496 /_  -43.6    1.0208    12.470        1-2     12.901 /_  -14.3    1.0346
   -                 2       7.4273 /_ -165.3    1.0316    12.470        2-3     12.445 /_ -132.3   0.99797
   -                 3       7.4184 /_   80.8    1.0304    12.470        3-1     13.067 /_  108.4    1.0478
M1069428 ........... 1       7.3125 /_  -43.4    1.0157    12.470        1-2     12.769 /_  -14.5     1.024
   -                 2       7.2842 /_ -165.4    1.0118    12.470        2-3     12.265 /_ -132.5   0.98354
   -                 3       7.3165 /_   80.3    1.0162    12.470        3-1     12.897 /_  108.4    1.0343
N1139257 ........... 2       7.2842 /_ -165.4    1.0118    12.470
L2991919 ........... 1       7.1442 /_  -39.7   0.99232    12.470
M1026361 ........... 1       7.1417 /_  -39.7   0.99196    12.470
N1147857 ........... 1       7.2041 /_  -43.9    1.0006    12.470
M1009742 ........... 1       7.2024 /_  -43.9    1.0004    12.470
Q14412 ............. 1       7.2362 /_  -39.7    1.0051    12.470        1-2     12.581 /_  -10.1    1.0089
   -                 2       7.2392 /_ -160.4    1.0055    12.470        2-3     12.573 /_ -129.4    1.0082
   -                 3       7.3875 /_   81.0    1.0261    12.470        3-1     12.712 /_  110.3    1.0194
M1047325 ........... 1       7.2336 /_  -39.7    1.0047    12.470        1-2     12.577 /_  -10.1    1.0086
   -                 2       7.2365 /_ -160.4    1.0051    12.470        2-3     12.569 /_ -129.4     1.008
   -                 3       7.3868 /_   81.0     1.026    12.470        3-1     12.709 /_  110.3    1.0192
N1139263 ........... 1       7.3204 /_  -43.4    1.0168    12.470
L3048227 ........... 1       7.3203 /_  -43.4    1.0168    12.470
P827506 ............ 1       7.3204 /_  -43.4    1.0168    12.470
M1069469 ........... 1       7.3204 /_  -43.4    1.0168    12.470
M1027019 ........... 2       7.3195 /_ -165.8    1.0167    12.470
L2785522 ........... 2       7.3194 /_ -165.8    1.0166    12.470
L3216338 ........... 2       7.2603 /_ -165.9    1.0084    12.470
L2973146 ........... 2       7.2602 /_ -165.9    1.0084    12.470
M3037452 ........... 1       7.1342 /_  -39.7   0.99092    12.470
L2973164 ........... 1       7.1341 /_  -39.7   0.99091    12.470
L3120376 ........... 1       7.2947 /_  -43.8    1.0132    12.470
M1026925 ........... 1        7.293 /_  -43.8     1.013    12.470
M1047612 ........... 3       7.4318 /_   80.8    1.0323    12.470
P828360 ............ 3       7.4318 /_   80.8    1.0323    12.470
M1089195 ........... 3       7.5179 /_   81.7    1.0442    12.470
L3141393 ........... 3       7.5177 /_   81.7    1.0442    12.470
M1026946 ........... 2       7.3358 /_ -165.8    1.0189    12.470
M1026940 ........... 2       7.3352 /_ -165.8    1.0188    12.470
M1047471 ........... 2       7.1399 /_ -165.8   0.99171    12.470
L3216349 ........... 2       7.1398 /_ -165.8    0.9917    12.470
M1047401 ........... 1       7.1359 /_  -43.8   0.99116    12.470
L2748132 ........... 1       7.1358 /_  -43.8   0.99115    12.470
L3122820 ........... 1       7.1653 /_  -43.8   0.99525    12.470
L3141398 ........... 1       7.1653 /_  -43.8   0.99524    12.470
M1108360 ........... 3       7.3542 /_   82.6    1.0215    12.470
L3048968 ........... 3        7.354 /_   82.6    1.0215    12.470
L2801950 ........... 3       7.3637 /_   81.5    1.0228    12.470
M1069224 ........... 3        7.363 /_   81.5    1.0227    12.470
L2766746 ........... 3       7.3122 /_   80.6    1.0156    12.470
M1027073 ........... 3       7.3101 /_   80.6    1.0153    12.470
M1142873 ........... 3       7.4768 /_   83.5    1.0385    12.470
M1069181 ........... 1       7.3618 /_  -39.3    1.0225    12.470
L2973151 ........... 1       7.3602 /_  -39.3    1.0223    12.470
L3179682 ........... 3        7.436 /_   82.7    1.0328    12.470
L2786274 ........... 3       7.4359 /_   82.7    1.0328    12.470
L3066816 ........... 1       7.1903 /_  -43.7   0.99872    12.470
M1026667 ........... 1       7.1899 /_  -43.7   0.99866    12.470
M1108529 ........... 1       7.3935 /_  -40.7    1.0269    12.470        1-2     12.984 /_  -10.9    1.0412
   -                 2       7.5219 /_ -161.7    1.0448    12.470        2-3      12.75 /_ -129.7    1.0224
   -                 3       7.5151 /_   82.3    1.0438    12.470        3-1     13.102 /_  110.6    1.0507
M1108532 ........... 1       7.3911 /_  -40.7    1.0266    12.470        1-2     12.981 /_  -10.9     1.041
   -                 2       7.5205 /_ -161.7    1.0446    12.470        2-3     12.747 /_ -129.7    1.0222
   -                 3       7.5152 /_   82.3    1.0438    12.470        3-1     13.101 /_  110.6    1.0506
L2766723 ........... 1       7.1914 /_  -43.7   0.99887    12.470
L3122822 ........... 1       7.1913 /_  -43.7   0.99885    12.470
L2673312 ........... 1       7.1922 /_  -44.0   0.99898    12.470
L3235247 ........... 1        7.192 /_  -44.0   0.99895    12.470
M1166391 ........... 3       7.4134 /_   85.9    1.0297    12.470
L3254873 ........... 3       7.4094 /_   85.8    1.0291    12.470
L2861157 ........... 3       7.4525 /_   85.9    1.0351    12.470
P901951 ............ 3       7.4488 /_   85.9    1.0346    12.470
M1047346 ........... 1       7.2597 /_  -39.7    1.0084    12.470        1-2     12.619 /_  -10.1    1.0119
   -                 2       7.2616 /_ -160.4    1.0086    12.470        2-3       12.6 /_ -129.4    1.0104
   -                 3       7.3931 /_   81.0    1.0269    12.470        3-1     12.736 /_  110.3    1.0214
M1047345 ........... 1       7.2559 /_  -39.7    1.0078    12.470        1-2     12.613 /_  -10.1    1.0115
   -                 2       7.2583 /_ -160.4    1.0082    12.470        2-3     12.596 /_ -129.4    1.0101
   -                 3       7.3923 /_   81.0    1.0268    12.470        3-1     12.733 /_  110.3    1.0211
L2989596 ........... 2       7.3674 /_ -164.0    1.0233    12.470
L2822873 ........... 2       7.3673 /_ -164.0    1.0233    12.470
M1108328 ........... 3       7.4124 /_   82.7    1.0296    12.470
L2875754 ........... 3       7.4124 /_   82.7    1.0296    12.470
L2786204 ........... 3       7.5145 /_   86.1    1.0437    12.470
M1209819 ........... 3       7.5102 /_   86.1    1.0432    12.470
P901972 ............ 1        7.202 /_  -43.9    1.0003    12.470
M1009726 ........... 1       7.1992 /_  -43.9   0.99996    12.470
M1047702 ........... 1       7.3609 /_  -43.3    1.0224    12.470
N1137001 ........... 1       7.3608 /_  -43.3    1.0224    12.470
L2767340 ........... 1       6.9011 /_  -39.2   0.95854    12.470        1-2     12.226 /_   -8.9   0.98044
   -                 2       7.1635 /_ -159.9   0.99499    12.470        2-3      12.49 /_ -127.7    1.0016
   -                 3       7.4721 /_   83.0    1.0379    12.470        3-1     12.581 /_  110.6    1.0089
M3037449 ........... 1       6.9011 /_  -39.2   0.95854    12.470        1-2     12.226 /_   -8.9   0.98044
   -                 2       7.1635 /_ -159.9   0.99499    12.470        2-3      12.49 /_ -127.7    1.0016
   -                 3       7.4721 /_   83.0    1.0379    12.470        3-1     12.581 /_  110.6    1.0089
M1047457 ........... 2       7.1477 /_ -165.8    0.9928    12.470
L2710546 ........... 2       7.1468 /_ -165.8   0.99268    12.470
L2674027 ........... 1       6.7391 /_  -40.5   0.93605    12.470        1-2     12.037 /_  -10.2   0.96528
   -                 2       7.0898 /_ -161.5   0.98476    12.470        2-3     12.354 /_ -128.6   0.99067
   -                 3       7.4691 /_   82.4    1.0374    12.470        3-1     12.487 /_  109.4    1.0014
L2692633 ........... 1       6.7318 /_  -40.6   0.93504    12.470        1-2     12.028 /_  -10.2   0.96458
   -                 2        7.086 /_ -161.6   0.98422    12.470        2-3     12.347 /_ -128.6   0.99014
   -                 3        7.469 /_   82.4    1.0374    12.470        3-1     12.483 /_  109.3     1.001
N1142108 ........... 1       7.1507 /_  -37.8   0.99322    12.470
L2674051 ........... 1       7.1506 /_  -37.8   0.99321    12.470
M1069135 ........... 1       7.2844 /_  -39.7    1.0118    12.470        1-2     12.657 /_  -10.0     1.015
   -                 2       7.2827 /_ -160.3    1.0116    12.470        2-3     12.627 /_ -129.4    1.0126
   -                 3       7.3999 /_   81.0    1.0278    12.470        3-1     12.762 /_  110.4    1.0235
R18242 ............. 1       7.2794 /_  -39.7    1.0111    12.470        1-2      12.65 /_  -10.0    1.0144
   -                 2       7.2787 /_ -160.4     1.011    12.470        2-3     12.622 /_ -129.4    1.0122
   -                 3       7.3993 /_   81.0    1.0277    12.470        3-1     12.758 /_  110.4    1.0231
M1047534 ........... 1       7.4783 /_  -43.2    1.0387    12.470        1-2     13.084 /_  -13.9    1.0492
   -                 2       7.5096 /_ -164.8    1.0431    12.470        2-3     12.582 /_ -132.0     1.009
   -                 3       7.4734 /_   81.0     1.038    12.470        3-1     13.211 /_  108.9    1.0594
N1136663 ........... 1       7.4567 /_  -43.3    1.0357    12.470        1-2     13.051 /_  -14.0    1.0466
   -                 2       7.4932 /_ -164.9    1.0408    12.470        2-3     12.556 /_ -132.1    1.0069
   -                 3       7.4616 /_   80.9    1.0364    12.470        3-1     13.184 /_  108.8    1.0572
M1108508 ........... 3       7.5155 /_   82.1    1.0439    12.470
L3097861 ........... 3       7.5155 /_   82.1    1.0439    12.470
M1069560 ........... 2       7.3634 /_ -164.0    1.0228    12.470
L2973153 ........... 1       7.3717 /_  -43.4    1.0239    12.470        1-2     12.896 /_  -14.3    1.0342
   -                 2       7.3834 /_ -165.2    1.0255    12.470        2-3     12.424 /_ -132.1   0.99628
   -                 3       7.4339 /_   80.8    1.0326    12.470        3-1     13.084 /_  108.6    1.0492
N1136998 ........... 1       7.3712 /_  -43.4    1.0238    12.470        1-2     12.895 /_  -14.3    1.0341
   -                 2       7.3821 /_ -165.2    1.0254    12.470        2-3     12.423 /_ -132.1   0.99619
   -                 3       7.4341 /_   80.8    1.0326    12.470        3-1     13.083 /_  108.6    1.0492
L2898515 ........... 3       7.5045 /_   84.7    1.0423    12.470
M1166387 ........... 3       7.5043 /_   84.7    1.0423    12.470
M1047442 ........... 2       7.1778 /_ -165.7   0.99697    12.470
L3235250 ........... 2       7.1777 /_ -165.7   0.99696    12.470
M1142871 ........... 1       7.0746 /_  -37.9   0.98264    12.470        1-2     12.432 /_   -7.7   0.99692
   -                 2        7.252 /_ -158.3    1.0073    12.470        2-3     12.642 /_ -126.9    1.0138
   -                 3       7.4777 /_   83.5    1.0386    12.470        3-1      12.69 /_  111.9    1.0177
M1142874 ........... 1       7.0693 /_  -37.9   0.98191    12.470        1-2     12.425 /_   -7.7    0.9964
   -                 2       7.2492 /_ -158.3    1.0069    12.470        2-3     12.638 /_ -126.9    1.0134
   -                 3       7.4774 /_   83.5    1.0386    12.470        3-1     12.687 /_  111.9    1.0174
L2955081 ........... 1       7.1512 /_  -37.9   0.99328    12.470        1-2     12.474 /_   -7.8    1.0003
   -                 2       7.2386 /_ -158.1    1.0054    12.470        2-3     12.656 /_ -127.2    1.0149
   -                 3       7.4385 /_   82.8    1.0332    12.470        3-1     12.677 /_  111.8    1.0166
M1108315 ........... 1       7.1515 /_  -37.9   0.99333    12.470        1-2     12.472 /_   -7.8    1.0002
   -                 2        7.236 /_ -158.1    1.0051    12.470        2-3     12.654 /_ -127.2    1.0148
   -                 3       7.4362 /_   82.7    1.0329    12.470        3-1     12.674 /_  111.8    1.0164
L2973162 ........... 1       7.1484 /_  -39.6   0.99289    12.470        1-2     12.418 /_  -10.2   0.99581
   -                 2       7.1178 /_ -160.7   0.98864    12.470        2-3     12.446 /_ -129.2   0.99811
   -                 3       7.3821 /_   81.1    1.0254    12.470        3-1      12.63 /_  110.2    1.0128
M1026333 ........... 1       7.1478 /_  -39.6   0.99281    12.470        1-2     12.415 /_  -10.2   0.99557
   -                 2        7.114 /_ -160.7   0.98812    12.470        2-3     12.444 /_ -129.2   0.99788
   -                 3        7.383 /_   81.1    1.0255    12.470        3-1      12.63 /_  110.2    1.0128
M1009832 ........... 2       7.2687 /_ -165.9    1.0096    12.470
L2860479 ........... 2       7.2687 /_ -165.9    1.0096    12.470
M1026854 ........... 1       7.3098 /_  -43.8    1.0153    12.470        1-2     12.851 /_  -14.4    1.0306
   -                 2       7.4113 /_ -165.4    1.0294    12.470        2-3     12.413 /_ -132.3   0.99541
   -                 3       7.4081 /_   80.8     1.029    12.470        3-1     13.032 /_  108.3     1.045
P901894 ............ 1       7.3096 /_  -43.8    1.0153    12.470
M1026485 ........... 2       7.2176 /_ -160.5    1.0025    12.470
M1026492 ........... 2       7.2174 /_ -160.5    1.0025    12.470
D6413567-3_INT ..... 1       7.3838 /_  -39.2    1.0256    12.470        1-2     12.831 /_   -9.3     1.029
   -                 2       7.4053 /_ -159.6    1.0286    12.470        2-3     12.753 /_ -129.0    1.0227
   -                 3       7.4004 /_   81.5    1.0279    12.470        3-1     12.848 /_  111.1    1.0303
E182724 ............ 1       7.3837 /_  -39.2    1.0256    12.470        1-2     12.831 /_   -9.3     1.029
   -                 2       7.4053 /_ -159.6    1.0286    12.470        2-3     12.753 /_ -129.0    1.0227
   -                 3       7.4004 /_   81.5    1.0279    12.470        3-1     12.848 /_  111.1    1.0303
N1139541 ........... 1       7.3857 /_  -39.2    1.0259    12.470        1-2     12.834 /_   -9.3    1.0292
   -                 2        7.407 /_ -159.5    1.0288    12.470        2-3     12.755 /_ -129.0    1.0229
   -                 3       7.4006 /_   81.5    1.0279    12.470        3-1     12.849 /_  111.1    1.0304
M4122658 ........... 1       6.8259 /_  -39.8   0.94809    12.470        1-2     12.139 /_   -9.5   0.97347
   -                 2       7.1309 /_ -160.6   0.99046    12.470        2-3     12.428 /_ -128.1   0.99666
   -                 3       7.4711 /_   82.7    1.0377    12.470        3-1     12.538 /_  110.1    1.0055
L2933135 ........... 1       6.8257 /_  -39.8   0.94807    12.470        1-2     12.139 /_   -9.5   0.97345
   -                 2       7.1308 /_ -160.6   0.99045    12.470        2-3     12.428 /_ -128.1   0.99664
   -                 3        7.471 /_   82.7    1.0377    12.470        3-1     12.538 /_  110.1    1.0055
L2729414 ........... 1       7.2204 /_  -43.6    1.0029    12.470        1-2     12.749 /_  -13.9    1.0224
   -                 2       7.4058 /_ -164.9    1.0287    12.470        2-3     12.342 /_ -132.3   0.98973
   -                 3       7.3009 /_   80.9    1.0141    12.470        3-1     12.856 /_  108.5     1.031
L2729430 ........... 2       7.3056 /_ -165.8    1.0147    12.470
L2766742 ........... 2       7.2987 /_ -165.8    1.0138    12.470
M1026972 ........... 2       7.1818 /_ -165.6   0.99754    12.470
L2860483 ........... 2       7.1816 /_ -165.6   0.99751    12.470
L2860490 ........... 1       7.2693 /_  -39.7    1.0097    12.470        1-2     12.634 /_  -10.1    1.0132
   -                 2       7.2702 /_ -160.4    1.0098    12.470        2-3     12.611 /_ -129.4    1.0113
   -                 3       7.3961 /_   81.0    1.0273    12.470        3-1     12.747 /_  110.4    1.0222
L3104134 ........... 1       7.2637 /_  -39.7    1.0089    12.470        1-2     12.625 /_  -10.1    1.0124
   -                 2       7.2651 /_ -160.4    1.0091    12.470        2-3     12.605 /_ -129.4    1.0108
   -                 3       7.3943 /_   81.0     1.027    12.470        3-1     12.741 /_  110.4    1.0217
M1089144 ........... 1        7.012 /_  -38.5   0.97395    12.470
P827522 ............ 1        7.012 /_  -38.5   0.97395    12.470
M1089118 ........... 1       7.4439 /_  -38.9    1.0339    12.470        1-2     12.931 /_   -9.0     1.037
   -                 2       7.4639 /_ -159.2    1.0367    12.470        2-3     12.835 /_ -128.8    1.0293
   -                 3       7.4309 /_   81.7    1.0321    12.470        3-1     12.925 /_  111.4    1.0365
L3048208 ........... 1       7.4438 /_  -38.9    1.0339    12.470
M1108505 ........... 1       6.7586 /_  -40.3   0.93875    12.470        1-2      12.06 /_  -10.0   0.96714
   -                 2       7.1003 /_ -161.3   0.98621    12.470        2-3     12.371 /_ -128.5   0.99209
   -                 3       7.4692 /_   82.5    1.0375    12.470        3-1     12.499 /_  109.5    1.0023
L2955047 ........... 1       6.7527 /_  -40.4   0.93793    12.470        1-2     12.053 /_  -10.1   0.96657
   -                 2       7.0971 /_ -161.4   0.98577    12.470        2-3     12.366 /_ -128.5   0.99166
   -                 3       7.4692 /_   82.5    1.0375    12.470        3-1     12.495 /_  109.5     1.002
M1089148 ........... 1       7.0091 /_  -38.5   0.97354    12.470
L2766721 ........... 1        7.009 /_  -38.5   0.97353    12.470
M1026745 ........... 2       7.1361 /_ -165.8   0.99119    12.470
L3029183 ........... 2        7.136 /_ -165.8   0.99118    12.470
L2710512 ........... 2       7.1531 /_ -165.7   0.99354    12.470
M1047828 ........... 2       7.1487 /_ -165.7   0.99293    12.470
M1047342 ........... 1       7.2553 /_  -39.7    1.0077    12.470
L3197645 ........... 1       7.2552 /_  -39.7    1.0077    12.470
M1069192 ........... 1       7.3666 /_  -39.3    1.0232    12.470
L3235253 ........... 1       7.3665 /_  -39.3    1.0232    12.470
L3214071 ........... 1       6.9928 /_  -38.5   0.97128    12.470        1-2     12.333 /_   -8.3   0.98904
   -                 2       7.2086 /_ -159.0    1.0013    12.470        2-3      12.57 /_ -127.3     1.008
   -                 3        7.474 /_   83.2    1.0381    12.470        3-1     12.637 /_  111.3    1.0134
M1125952 ........... 1       6.9853 /_  -38.5   0.97024    12.470        1-2     12.324 /_   -8.3   0.98832
   -                 2       7.2046 /_ -159.1    1.0007    12.470        2-3     12.563 /_ -127.3    1.0074
   -                 3       7.4737 /_   83.2    1.0381    12.470        3-1     12.632 /_  111.3     1.013
M1027101 ........... 2       7.1496 /_ -165.7   0.99307    12.470
L2860480 ........... 2       7.1493 /_ -165.7   0.99302    12.470
L2710517 ........... 1       7.1673 /_  -43.7   0.99553    12.470
M1026646 ........... 1       7.1659 /_  -43.8   0.99532    12.470
M1069662 ........... 2       7.3209 /_ -164.1    1.0169    12.470
L2935547 ........... 2       7.3208 /_ -164.1    1.0168    12.470
M1026931 ........... 1       7.2882 /_  -43.8    1.0123    12.470
L3216336 ........... 1       7.2877 /_  -43.8    1.0122    12.470
L3142049 ........... 1       6.7911 /_  -40.1   0.94326    12.470        1-2     12.098 /_   -9.8   0.97019
   -                 2       7.1151 /_ -161.0   0.98827    12.470        2-3     12.399 /_ -128.3    0.9943
   -                 3       7.4699 /_   82.6    1.0376    12.470        3-1     12.518 /_  109.8    1.0038
M1108493 ........... 1       6.7812 /_  -40.1   0.94189    12.470        1-2     12.087 /_   -9.8   0.96926
   -                 2       7.1106 /_ -161.1   0.98764    12.470        2-3     12.391 /_ -128.4   0.99363
   -                 3       7.4697 /_   82.6    1.0375    12.470        3-1     12.512 /_  109.7    1.0034
M1069169 ........... 1       7.3717 /_  -39.2    1.0239    12.470        1-2     12.813 /_   -9.4    1.0275
   -                 2       7.3951 /_ -159.6    1.0272    12.470        2-3     12.742 /_ -129.1    1.0218
   -                 3       7.3994 /_   81.5    1.0278    12.470        3-1     12.837 /_  111.0    1.0294
L3010556 ........... 1       7.3648 /_  -39.3     1.023    12.470        1-2     12.801 /_   -9.4    1.0265
   -                 2       7.3865 /_ -159.7     1.026    12.470        2-3     12.733 /_ -129.1    1.0211
   -                 3       7.3989 /_   81.4    1.0277    12.470        3-1     12.831 /_  111.0    1.0289
L2991933 ........... 3       7.3798 /_   80.7     1.025    12.470
L3122837 ........... 3       7.3791 /_   80.7    1.0249    12.470
L2691936 ........... 1       7.2871 /_  -43.8    1.0122    12.470
L2897772 ........... 1       7.2053 /_  -39.7    1.0008    12.470
L3101814 ........... 1       7.2053 /_  -39.7    1.0008    12.470
L2766732 ........... 2       7.2178 /_ -160.5    1.0025    12.470
L2989564 ........... 2       7.3212 /_ -164.1    1.0169    12.470
M1126016 ........... 1       6.7433 /_  -40.4   0.93663    12.470
L3120534 ........... 1       6.7429 /_  -40.4   0.93658    12.470
M1026330 ........... 1       7.1468 /_  -39.6   0.99268    12.470        1-2     12.409 /_  -10.2   0.99513
   -                 2       7.1067 /_ -160.7   0.98711    12.470        2-3     12.438 /_ -129.1   0.99744
   -                 3       7.3848 /_   81.1    1.0257    12.470        3-1      12.63 /_  110.2    1.0128
L2766726 ........... 2       7.1067 /_ -160.7    0.9871    12.470
P901912 ............ 2       7.4051 /_ -165.0    1.0285    12.470
L3195365 ........... 2       7.4051 /_ -165.0    1.0285    12.470
M1108381 ........... 1       6.8452 /_  -39.4   0.95078    12.470        1-2     12.149 /_   -9.2   0.97423
   -                 2       7.1225 /_ -160.3    0.9893    12.470        2-3     12.431 /_ -127.9   0.99687
   -                 3       7.4653 /_   82.9    1.0369    12.470        3-1     12.537 /_  110.4    1.0053
L3254237 ........... 1        6.844 /_  -39.4   0.95061    12.470        1-2     12.147 /_   -9.2   0.97409
   -                 2       7.1217 /_ -160.3   0.98919    12.470        2-3      12.43 /_ -127.9   0.99677
   -                 3       7.4647 /_   82.9    1.0368    12.470        3-1     12.535 /_  110.4    1.0052
L2804262 ........... 1       7.3071 /_  -43.8    1.0149    12.470
L2841639 ........... 1       7.3047 /_  -43.8    1.0146    12.470
N1230123 ........... 2       7.1291 /_ -160.3   0.99021    12.470
L2708744 ........... 2       7.1275 /_ -160.3   0.98999    12.470
M1069519 ........... 1       7.2013 /_  -42.1    1.0002    12.470        1-2     12.761 /_  -12.5    1.0234
   -                 2       7.4077 /_ -163.8    1.0289    12.470        2-3     12.573 /_ -130.9    1.0083
   -                 3       7.5269 /_   81.5    1.0455    12.470        3-1      12.98 /_  109.0    1.0409
P901927 ............ 2       7.4077 /_ -163.8    1.0289    12.470
L2897790 ........... 3       7.5311 /_   81.5    1.0461    12.470
L2935566 ........... 3        7.531 /_   81.5     1.046    12.470
L3216337 ........... 1       7.2881 /_  -43.8    1.0123    12.470
P901931 ............ 3       7.5314 /_   81.5    1.0461    12.470
M1069548 ........... 3       7.5313 /_   81.5    1.0461    12.470
M1010013 ........... 1       7.1155 /_  -44.2   0.98832    12.470
L3120503 ........... 1       7.1154 /_  -44.2   0.98831    12.470
M1089145 ........... 1       7.0118 /_  -38.5   0.97392    12.470        1-2     12.227 /_   -8.5   0.98047
   -                 2       7.0872 /_ -158.8   0.98439    12.470        2-3     12.424 /_ -127.8   0.99634
   -                 3       7.3273 /_   82.2    1.0177    12.470        3-1     12.461 /_  111.1   0.99928
L3215385 ........... 1       7.0117 /_  -38.5   0.97391    12.470        1-2     12.226 /_   -8.5   0.98046
   -                 2       7.0871 /_ -158.8   0.98438    12.470        2-3     12.424 /_ -127.8   0.99632
   -                 3       7.3272 /_   82.2    1.0177    12.470        3-1     12.461 /_  111.1   0.99927
M1026852 ........... 1       7.3018 /_  -43.8    1.0142    12.470        1-2      12.84 /_  -14.4    1.0297
   -                 2        7.406 /_ -165.4    1.0287    12.470        2-3     12.404 /_ -132.3   0.99474
   -                 3       7.4058 /_   80.8    1.0286    12.470        3-1     13.024 /_  108.3    1.0444
M1069420 ........... 1       7.3091 /_  -43.4    1.0152    12.470        1-2     12.759 /_  -14.5    1.0232
   -                 2       7.2722 /_ -165.5    1.0101    12.470        2-3     12.251 /_ -132.5   0.98247
   -                 3       7.3127 /_   80.2    1.0157    12.470        3-1     12.888 /_  108.4    1.0335
L3157708 ........... 3       7.3921 /_   80.9    1.0267    12.470
N1137991 ........... 3       7.3921 /_   80.9    1.0267    12.470
M1108413 ........... 1         6.85 /_  -39.4   0.95145    12.470
M1108460 ........... 1       6.8475 /_  -39.4   0.95111    12.470
P827532 ............ 1       7.2336 /_  -39.7    1.0047    12.470
M1047326 ........... 1       7.2336 /_  -39.7    1.0047    12.470
E182732 ............ 1       7.2582 /_  -43.6    1.0081    12.470        1-2      12.79 /_  -13.9    1.0256
   -                 2       7.4092 /_ -165.0    1.0291    12.470        2-3     12.364 /_ -132.2   0.99153
   -                 3       7.3231 /_   80.9    1.0172    12.470        3-1     12.904 /_  108.5    1.0348
M1026760 ........... 1       7.2573 /_  -43.6     1.008    12.470        1-2     12.789 /_  -13.9    1.0256
   -                 2       7.4091 /_ -165.0    1.0291    12.470        2-3     12.364 /_ -132.2   0.99148
   -                 3       7.3226 /_   80.9    1.0171    12.470        3-1     12.903 /_  108.5    1.0347
L3048205 ........... 3       7.3438 /_   82.5      1.02    12.470
M1108361 ........... 3       7.3308 /_   82.5    1.0182    12.470
M3036169 ........... 1       7.1705 /_  -43.7   0.99597    12.470
L2673317 ........... 1       7.1705 /_  -43.7   0.99596    12.470
L3178981 ........... 2        7.276 /_ -160.3    1.0106    12.470
M1047368 ........... 2       7.2641 /_ -160.4     1.009    12.470
N1136354 ........... 1       7.1998 /_  -42.1         1    12.470        1-2     12.761 /_  -12.5    1.0233
   -                 2       7.4042 /_ -163.9    1.0284    12.470        2-3      12.57 /_ -130.9     1.008
   -                 3       7.5295 /_   81.5    1.0458    12.470        3-1      12.98 /_  109.0    1.0409
L2879794 ........... 1       7.1457 /_  -37.6   0.99252    12.470
M1142811 ........... 1       7.1454 /_  -37.6   0.99248    12.470
M1069565 ........... 2       7.3675 /_ -164.0    1.0233    12.470
L2785536 ........... 2       7.3672 /_ -164.0    1.0233    12.470
L3104114 ........... 2       7.2836 /_ -165.8    1.0117    12.470
M1009824 ........... 2       7.2805 /_ -165.8    1.0112    12.470
L2745848 ........... 1       7.3255 /_  -43.4    1.0175    12.470        1-2     12.809 /_  -14.3    1.0272
   -                 2       7.3321 /_ -165.3    1.0184    12.470        2-3     12.318 /_ -132.4   0.98782
   -                 3       7.3326 /_   80.5    1.0185    12.470        3-1     12.936 /_  108.5    1.0374
L2673308 ........... 1       7.3245 /_  -43.4    1.0174    12.470        1-2     12.806 /_  -14.3     1.027
   -                 2       7.3287 /_ -165.3    1.0179    12.470        2-3     12.314 /_ -132.4   0.98752
   -                 3       7.3316 /_   80.5    1.0183    12.470        3-1     12.933 /_  108.5    1.0372
L2991939 ........... 1       7.3227 /_  -43.4    1.0171    12.470        1-2     12.801 /_  -14.4    1.0265
   -                 2       7.3224 /_ -165.3    1.0171    12.470        2-3     12.307 /_ -132.4   0.98696
   -                 3       7.3296 /_   80.4    1.0181    12.470        3-1     12.928 /_  108.5    1.0368
L2916606 ........... 3       7.3633 /_   82.6    1.0227    12.470
L2822864 ........... 3       7.3632 /_   82.6    1.0227    12.470
M1142851 ........... 1       7.1346 /_  -37.4   0.99098    12.470        1-2     12.505 /_   -7.2    1.0028
   -                 2       7.2848 /_ -157.7    1.0118    12.470        2-3     12.696 /_ -126.5    1.0182
   -                 3       7.4818 /_   83.7    1.0392    12.470        3-1     12.732 /_  112.4     1.021
196-31070 .......... 1       7.1327 /_  -37.5   0.99071    12.470        1-2     12.503 /_   -7.2    1.0026
   -                 2       7.2838 /_ -157.7    1.0117    12.470        2-3     12.695 /_ -126.6     1.018
   -                 3       7.4816 /_   83.7    1.0392    12.470        3-1      12.73 /_  112.4    1.0209
M1209822 ........... 3       7.4717 /_   86.0    1.0378    12.470
M1209823 ........... 3       7.4685 /_   86.0    1.0374    12.470
M1069550 ........... 2       7.3717 /_ -164.0    1.0239    12.470
M1069551 ........... 2       7.3713 /_ -164.0    1.0239    12.470
L3141397 ........... 2       7.1815 /_ -165.6   0.99749    12.470
L3649299 ........... 1       7.3394 /_  -43.7    1.0194    12.470
M3772794 ........... 1       7.3394 /_  -43.7    1.0194    12.470
P895106 ............ 2        7.175 /_ -159.7   0.99658    12.470
L3048887 ........... 2       7.1745 /_ -159.7   0.99652    12.470
M1047824 ........... 2       7.1557 /_ -165.7   0.99391    12.470
M1047834 ........... 2       7.1513 /_ -165.7    0.9933    12.470
M1069350 ........... 1       7.3062 /_  -43.4    1.0148    12.470        1-2     12.734 /_  -14.6    1.0212
   -                 2       7.2392 /_ -165.6    1.0055    12.470        2-3     12.213 /_ -132.6   0.97941
   -                 3       7.2917 /_   80.1    1.0128    12.470        3-1     12.854 /_  108.4    1.0308
N1144668 ........... 1       7.3065 /_  -43.4    1.0149    12.470        1-2     12.734 /_  -14.6    1.0211
   -                 2       7.2391 /_ -165.6    1.0055    12.470        2-3     12.213 /_ -132.6   0.97939
   -                 3       7.2908 /_   80.1    1.0127    12.470        3-1     12.853 /_  108.4    1.0307
L2879072 ........... 2       7.1946 /_ -165.7   0.99931    12.470
M1047441 ........... 2       7.1802 /_ -165.7   0.99731    12.470
M1108274 ........... 2       7.4529 /_ -159.2    1.0352    12.470
M1108269 ........... 2       7.4527 /_ -159.2    1.0352    12.470
L3235244 ........... 1       7.2977 /_  -43.4    1.0136    12.470
M1069398 ........... 1       7.2973 /_  -43.4    1.0136    12.470
N1147862 ........... 1       7.2373 /_  -43.9    1.0052    12.470
L2685805 ........... 1       7.2371 /_  -43.9    1.0052    12.470
M1069247 ........... 1       7.3067 /_  -43.4    1.0149    12.470
M1069248 ........... 1       7.3064 /_  -43.4    1.0148    12.470
L2786273 ........... 2       7.4522 /_ -159.2    1.0351    12.470
M1108278 ........... 2       7.4516 /_ -159.2     1.035    12.470
L3254238 ........... 1       7.1993 /_  -39.7   0.99997    12.470        1-2     12.515 /_  -10.1    1.0036
   -                 2       7.1938 /_ -160.5    0.9992    12.470        2-3     12.519 /_ -129.3    1.0039
   -                 3       7.3766 /_   81.0    1.0246    12.470        3-1      12.67 /_  110.3    1.0161
M1047303 ........... 1       7.1943 /_  -39.7   0.99927    12.470        1-2     12.505 /_  -10.1    1.0028
   -                 2       7.1862 /_ -160.5   0.99814    12.470        2-3      12.51 /_ -129.3    1.0032
   -                 3        7.375 /_   81.0    1.0244    12.470        3-1     12.665 /_  110.3    1.0156
M1047633 ........... 3       7.4294 /_   80.8    1.0319    12.470
L2897554 ........... 3       7.4288 /_   80.8    1.0318    12.470
M1069627 ........... 2       7.3195 /_ -164.1    1.0167    12.470
L2897791 ........... 2       7.3181 /_ -164.1    1.0165    12.470
M1089097 ........... 2       7.4567 /_ -159.2    1.0357    12.470
M1108270 ........... 2       7.4558 /_ -159.2    1.0356    12.470
N1142101 ........... 1       6.7961 /_  -40.0   0.94397    12.470
L2936214 ........... 1       6.7961 /_  -40.0   0.94396    12.470
L3066810 ........... 3       7.3179 /_   80.3    1.0164    12.470
L2897769 ........... 3       7.3169 /_   80.3    1.0163    12.470
M1209758 ........... 2       7.4298 /_ -155.3     1.032    12.470
M1209753 ........... 2       7.4293 /_ -155.3    1.0319    12.470
M1047528 ........... 1       7.4196 /_  -43.4    1.0306    12.470        1-2     12.995 /_  -14.1    1.0421
   -                 2        7.464 /_ -165.0    1.0367    12.470        2-3     12.511 /_ -132.1    1.0033
   -                 3       7.4434 /_   80.9    1.0339    12.470        3-1     13.138 /_  108.7    1.0535
L2858166 ........... 1       7.4191 /_  -43.4    1.0305    12.470        1-2     12.994 /_  -14.1    1.0421
   -                 2       7.4636 /_ -165.0    1.0367    12.470        2-3      12.51 /_ -132.1    1.0032
   -                 3       7.4433 /_   80.9    1.0339    12.470        3-1     13.137 /_  108.7    1.0535
M1142843 ........... 1       7.1536 /_  -37.3   0.99362    12.470        1-2     12.528 /_   -7.1    1.0047
   -                 2       7.2952 /_ -157.5    1.0133    12.470        2-3     12.713 /_ -126.4    1.0195
   -                 3       7.4833 /_   83.8    1.0394    12.470        3-1     12.745 /_  112.5     1.022
L3081380 ........... 1       7.1532 /_  -37.3   0.99357    12.470        1-2     12.525 /_   -7.1    1.0044
   -                 2       7.2914 /_ -157.6    1.0128    12.470        2-3      12.71 /_ -126.5    1.0192
   -                 3       7.4803 /_   83.7     1.039    12.470        3-1      12.74 /_  112.5    1.0217
L2804272 ........... 2       7.3709 /_ -164.0    1.0238    12.470
L2841641 ........... 2       7.3708 /_ -164.0    1.0238    12.470
M1069393 ........... 2       7.2187 /_ -165.6    1.0027    12.470
M1069408 ........... 2       7.2136 /_ -165.6    1.0019    12.470
N1142104 ........... 1       6.7669 /_  -40.3    0.9399    12.470        1-2      12.07 /_   -9.9   0.96791
   -                 2        7.104 /_ -161.2   0.98673    12.470        2-3     12.378 /_ -128.4   0.99265
   -                 3       7.4694 /_   82.5    1.0375    12.470        3-1     12.504 /_  109.6    1.0027
M1108500 ........... 1       6.7616 /_  -40.3   0.93917    12.470        1-2     12.064 /_  -10.0   0.96742
   -                 2       7.1016 /_ -161.3    0.9864    12.470        2-3     12.374 /_ -128.5   0.99229
   -                 3       7.4693 /_   82.5    1.0375    12.470        3-1     12.501 /_  109.5    1.0025
L3216348 ........... 1       7.1385 /_  -43.8   0.99152    12.470
L2841627 ........... 1       7.1369 /_  -43.8   0.99129    12.470
L2916599 ........... 1        7.293 /_  -43.8     1.013    12.470
M1047447 ........... 2       7.1649 /_ -165.7   0.99519    12.470
L2954349 ........... 2       7.1648 /_ -165.7   0.99517    12.470
L3235246 ........... 2       7.1556 /_ -165.7    0.9939    12.470
M1125911 ........... 2       7.2498 /_ -158.0     1.007    12.470
L2711224 ........... 2       7.2484 /_ -158.0    1.0068    12.470
N1147863 ........... 3       7.3897 /_   80.7    1.0264    12.470
L3122817 ........... 3       7.3897 /_   80.7    1.0264    12.470
M1186061 ........... 1        7.345 /_  -35.3    1.0202    12.470        1-2     12.797 /_   -5.1    1.0262
   -                 2       7.4314 /_ -155.3    1.0322    12.470        2-3     12.911 /_ -124.8    1.0354
   -                 3       7.5233 /_   85.3     1.045    12.470        3-1     12.916 /_  114.6    1.0358
L2861223 ........... 2       7.4313 /_ -155.3    1.0322    12.470
M1069130 ........... 1       7.2829 /_  -39.7    1.0116    12.470
L3085396 ........... 1       7.2826 /_  -39.7    1.0115    12.470
E182730 ............ 1       7.2685 /_  -43.6    1.0096    12.470
N1142109 ........... 1       7.2684 /_  -43.6    1.0096    12.470
M1069417 ........... 1        7.305 /_  -43.4    1.0147    12.470        1-2     12.746 /_  -14.6    1.0221
   -                 2       7.2551 /_ -165.5    1.0077    12.470        2-3     12.233 /_ -132.6   0.98096
   -                 3       7.3072 /_   80.2     1.015    12.470        3-1     12.874 /_  108.4    1.0324
N1138597 ........... 1       7.3047 /_  -43.4    1.0146    12.470        1-2     12.744 /_  -14.6     1.022
   -                 2       7.2537 /_ -165.5    1.0075    12.470        2-3     12.231 /_ -132.6   0.98083
   -                 3       7.3067 /_   80.2    1.0149    12.470        3-1     12.873 /_  108.4    1.0323
M1026987 ........... 2       7.1747 /_ -165.6   0.99655    12.470
M1026990 ........... 2       7.1732 /_ -165.6   0.99634    12.470
M1142832 ........... 1       7.1524 /_  -37.4   0.99346    12.470        1-2     12.517 /_   -7.2    1.0037
   -                 2       7.2837 /_ -157.6    1.0117    12.470        2-3     12.701 /_ -126.6    1.0186
   -                 3       7.4741 /_   83.6    1.0381    12.470        3-1     12.731 /_  112.4    1.0209
L3160865 ........... 1       7.1521 /_  -37.4   0.99341    12.470        1-2     12.515 /_   -7.3    1.0036
   -                 2       7.2815 /_ -157.7    1.0114    12.470        2-3     12.699 /_ -126.6    1.0184
   -                 3       7.4725 /_   83.5    1.0379    12.470        3-1     12.728 /_  112.3    1.0207
L2673323 ........... 3       7.3794 /_   80.7     1.025    12.470
M1009809 ........... 3       7.3792 /_   80.7     1.025    12.470
L2822869 ........... 1       7.3302 /_  -43.5    1.0181    12.470        1-2     12.867 /_  -14.0    1.0319
   -                 2       7.4153 /_ -165.0      1.03    12.470        2-3     12.407 /_ -132.2   0.99492
   -                 3       7.3651 /_   80.9     1.023    12.470        3-1     12.994 /_  108.6     1.042
M1026808 ........... 1       7.3208 /_  -43.5    1.0168    12.470        1-2     12.857 /_  -14.0     1.031
   -                 2       7.4144 /_ -165.0    1.0298    12.470        2-3     12.401 /_ -132.2   0.99444
   -                 3        7.359 /_   80.9    1.0221    12.470        3-1     12.982 /_  108.6     1.041
M1047825 ........... 2       7.1415 /_ -165.7   0.99193    12.470
M1069731 ........... 2       7.1399 /_ -165.7   0.99171    12.470
N1140520 ........... 3        7.359 /_   80.9    1.0221    12.470
L2729410 ........... 3       7.3589 /_   80.9    1.0221    12.470
L3178978 ........... 1       7.1611 /_  -43.8   0.99466    12.470
M1069384 ........... 1       7.2991 /_  -43.4    1.0138    12.470
L3066805 ........... 1        7.299 /_  -43.4    1.0138    12.470
M4362181 ........... 2       7.1463 /_ -165.8    0.9926    12.470
M1047319 ........... 3       7.3699 /_   81.0    1.0237    12.470
M1047318 ........... 3       7.3695 /_   81.0    1.0236    12.470
L3216358 ........... 1       7.2805 /_  -43.9    1.0112    12.470
M1026826 ........... 1       7.2791 /_  -43.9    1.0111    12.470
M1108276 ........... 2       7.4525 /_ -159.2    1.0351    12.470
M1089198 ........... 1       7.3036 /_  -41.4    1.0145    12.470        1-2     12.878 /_  -11.6    1.0327
   -                 2       7.4704 /_ -162.7    1.0376    12.470        2-3     12.669 /_ -130.3    1.0159
   -                 3        7.517 /_   81.9    1.0441    12.470        3-1     13.043 /_  109.8    1.0459
M1089201 ........... 1       7.2868 /_  -41.5    1.0121    12.470        1-2     12.859 /_  -11.8    1.0312
   -                 2       7.4608 /_ -162.8    1.0363    12.470        2-3     12.653 /_ -130.4    1.0147
   -                 3       7.5175 /_   81.9    1.0442    12.470        3-1     13.032 /_  109.7    1.0451
M1047763 ........... 1         7.32 /_  -43.1    1.0167    12.470        1-2     12.738 /_  -14.6    1.0215
   -                 2       7.2141 /_ -165.6     1.002    12.470        2-3     12.288 /_ -131.7   0.98544
   -                 3       7.4683 /_   80.8    1.0373    12.470        3-1     13.054 /_  108.5    1.0468
N1136027 ........... 1       7.3197 /_  -43.1    1.0167    12.470
L3101827 ........... 3       7.5123 /_   82.3    1.0434    12.470
M1108540 ........... 3       7.5093 /_   82.3     1.043    12.470
M1026335 ........... 1       7.1477 /_  -39.6    0.9928    12.470
L2804259 ........... 1       7.1476 /_  -39.6   0.99278    12.470
N1136357 ........... 3       7.5313 /_   81.5    1.0461    12.470
M1047513 ........... 1       7.3678 /_  -43.4    1.0234    12.470        1-2     12.914 /_  -14.1    1.0356
   -                 2       7.4271 /_ -165.0    1.0316    12.470        2-3      12.44 /_ -132.2   0.99756
   -                 3       7.3922 /_   80.9    1.0268    12.470        3-1     13.048 /_  108.7    1.0463
M1047507 ........... 1       7.3542 /_  -43.4    1.0215    12.470        1-2     12.893 /_  -14.1    1.0339
   -                 2       7.4173 /_ -165.0    1.0302    12.470        2-3     12.422 /_ -132.2   0.99612
   -                 3       7.3805 /_   80.9    1.0251    12.470        3-1     13.026 /_  108.7    1.0446
M1142863 ........... 1       7.1141 /_  -37.6   0.98813    12.470        1-2      12.48 /_   -7.4    1.0008
   -                 2       7.2735 /_ -157.9    1.0103    12.470        2-3     12.678 /_ -126.7    1.0167
   -                 3       7.4801 /_   83.6     1.039    12.470        3-1     12.717 /_  112.2    1.0198
N1141480 ........... 3         7.48 /_   83.6     1.039    12.470
M1125916 ........... 2       7.2511 /_ -158.0    1.0072    12.470
...